<configuration>
    <input>
        <net-file value="kalayaan_kamias.net.xml"/>
        <route-files value="routes.rou.xml"/>
    </input>

    <output>
        <tripinfo-output value="tripinfo.xml"/>
        <netstate-dump value="netstate.xml"/>
        <summary value="summary.xml"/>
    </output>

    <time>
        <begin value="0"/>
        <end value="3600"/>
    </time>
</configuration>
