<?xml version="1.0" encoding="UTF-8"?>

<!-- generated on 2025-05-03 18:24:08 by Eclipse SUMO netconvert Version 1.22.0
<netconvertConfiguration xmlns:xsi="http://www.w3.org/2001/XMLSchema-instance" xsi:noNamespaceSchemaLocation="http://sumo.dlr.de/xsd/netconvertConfiguration.xsd">

    <input>
        <osm-files value="input/kalayaan_kamias.osm"/>
    </input>

    <output>
        <output-file value="input/kalayaan_kamias.net.xml"/>
    </output>

    <projection>
        <proj.utm value="true"/>
    </projection>

</netconvertConfiguration>
-->

<net version="1.20" junctionCornerDetail="5" limitTurnSpeed="5.50" xmlns:xsi="http://www.w3.org/2001/XMLSchema-instance" xsi:noNamespaceSchemaLocation="http://sumo.dlr.de/xsd/net_file.xsd">

    <location netOffset="-289715.73,-1618224.46" convBoundary="0.00,0.00,1241.15,1773.22" origBoundary="121.047650,14.629312,121.059140,14.645315" projParameter="+proj=utm +zone=51 +ellps=WGS84 +datum=WGS84 +units=m +no_defs"/>

    <type id="highway.path" priority="1" numLanes="1" speed="5.56" allow="pedestrian bicycle" oneway="0" width="2.00"/>
    <type id="highway.residential" priority="3" numLanes="1" speed="13.89" disallow="tram rail_urban rail rail_electric rail_fast ship container cable_car subway aircraft wheelchair scooter drone" oneway="0"/>
    <type id="highway.secondary" priority="11" numLanes="1" speed="27.78" disallow="tram rail_urban rail rail_electric rail_fast ship container cable_car subway aircraft wheelchair scooter drone" oneway="0"/>
    <type id="highway.service" priority="1" numLanes="1" speed="5.56" allow="pedestrian delivery bicycle" oneway="0"/>
    <type id="highway.tertiary" priority="10" numLanes="1" speed="22.22" disallow="tram rail_urban rail rail_electric rail_fast ship container cable_car subway aircraft wheelchair scooter drone" oneway="0"/>

    <edge id=":1096054319_0" function="internal">
        <lane id=":1096054319_0_0" index="0" disallow="tram rail_urban rail rail_electric rail_fast ship container cable_car subway aircraft wheelchair scooter drone" speed="3.65" length="4.67" shape="1107.65,543.61 1108.59,544.71 1108.76,545.59 1108.16,546.25 1106.78,546.69"/>
    </edge>
    <edge id=":11467985984_0" function="internal">
        <lane id=":11467985984_0_0" index="0" allow="pedestrian delivery bicycle" speed="5.56" length="0.10" shape="726.88,498.57 726.88,498.57"/>
    </edge>
    <edge id=":11467985984_1" function="internal">
        <lane id=":11467985984_1_0" index="0" allow="pedestrian delivery bicycle" speed="5.56" length="0.10" shape="727.76,495.49 727.76,495.49"/>
    </edge>
    <edge id=":11467985985_0" function="internal">
        <lane id=":11467985985_0_0" index="0" allow="pedestrian delivery bicycle" speed="3.65" length="4.67" shape="854.98,517.10 855.93,518.18 856.11,519.06 855.52,519.73 854.15,520.19"/>
    </edge>
    <edge id=":11956719773_0" function="internal">
        <lane id=":11956719773_0_0" index="0" allow="pedestrian delivery bicycle" speed="3.65" length="4.67" shape="510.52,341.28 511.89,340.85 512.77,341.04 513.14,341.86 513.01,343.29"/>
    </edge>
    <edge id=":11956719774_0" function="internal">
        <lane id=":11956719774_0_0" index="0" allow="pedestrian delivery bicycle" speed="5.56" length="0.30" shape="500.97,358.17 500.92,358.24 500.88,358.29 500.85,358.34 500.81,358.42"/>
    </edge>
    <edge id=":11956719774_1" function="internal">
        <lane id=":11956719774_1_0" index="0" allow="pedestrian delivery bicycle" speed="5.56" length="0.89" shape="497.99,356.90 498.12,356.67 498.21,356.52 498.32,356.37 498.49,356.16"/>
    </edge>
    <edge id=":11956719775_0" function="internal">
        <lane id=":11956719775_0_0" index="0" disallow="tram rail_urban rail rail_electric rail_fast ship container cable_car subway aircraft wheelchair scooter drone" speed="27.78" length="9.53" shape="499.25,372.82 490.09,370.21"/>
        <lane id=":11956719775_0_1" index="1" disallow="tram rail_urban rail rail_electric rail_fast ship container cable_car subway aircraft wheelchair scooter drone" speed="27.78" length="9.53" shape="500.13,369.74 490.96,367.13"/>
    </edge>
    <edge id=":11956719775_2" function="internal">
        <lane id=":11956719775_2_0" index="0" allow="pedestrian delivery bicycle" speed="7.50" length="3.39" shape="500.13,369.74 497.11,368.22"/>
    </edge>
    <edge id=":11956719775_9" function="internal">
        <lane id=":11956719775_9_0" index="0" allow="pedestrian delivery bicycle" speed="7.50" length="10.99" shape="497.11,368.22 497.02,368.17 495.52,365.69 495.64,362.32 497.38,358.04"/>
    </edge>
    <edge id=":11956719775_3" function="internal">
        <lane id=":11956719775_3_0" index="0" allow="pedestrian delivery bicycle" speed="4.84" length="5.28" shape="500.20,359.56 499.68,360.96 499.79,362.10 500.53,362.98 501.89,363.59"/>
    </edge>
    <edge id=":11956719775_4" function="internal">
        <lane id=":11956719775_4_0" index="0" allow="pedestrian delivery bicycle" speed="8.29" length="12.76" shape="500.20,359.56 497.83,363.35 495.50,365.87 493.22,367.13 490.96,367.13"/>
    </edge>
    <edge id=":11956719775_5" function="internal">
        <lane id=":11956719775_5_0" index="0" allow="pedestrian delivery bicycle" speed="3.65" length="4.67" shape="500.20,359.56 498.92,360.24 498.03,360.21 497.51,359.48 497.38,358.04"/>
    </edge>
    <edge id=":11956719775_6" function="internal">
        <lane id=":11956719775_6_0" index="0" allow="pedestrian delivery bicycle" speed="5.88" length="5.98" shape="492.71,360.97 494.01,361.07 495.22,360.62 496.34,359.61 497.38,358.04"/>
    </edge>
    <edge id=":11956719775_7" function="internal">
        <lane id=":11956719775_7_0" index="0" disallow="tram rail_urban rail rail_electric rail_fast ship container cable_car subway aircraft wheelchair scooter drone" speed="27.78" length="9.55" shape="492.71,360.97 501.89,363.59"/>
        <lane id=":11956719775_7_1" index="1" disallow="tram rail_urban rail rail_electric rail_fast ship container cable_car subway aircraft wheelchair scooter drone" speed="27.78" length="9.55" shape="491.84,364.05 501.01,366.67"/>
    </edge>
    <edge id=":12077752249_0" function="internal">
        <lane id=":12077752249_0_0" index="0" allow="pedestrian delivery bicycle" speed="5.56" length="0.10" shape="698.82,466.32 698.82,466.32"/>
    </edge>
    <edge id=":12077752249_1" function="internal">
        <lane id=":12077752249_1_0" index="0" allow="pedestrian delivery bicycle" speed="5.56" length="0.10" shape="699.74,463.26 699.74,463.26"/>
    </edge>
    <edge id=":12077752252_0" function="internal">
        <lane id=":12077752252_0_0" index="0" allow="pedestrian delivery bicycle" speed="5.04" length="5.00" shape="759.71,448.23 758.36,448.01 757.26,448.28 756.42,449.04 755.83,450.28"/>
    </edge>
    <edge id=":12077752252_1" function="internal">
        <lane id=":12077752252_1_0" index="0" disallow="tram rail_urban rail rail_electric rail_fast ship container cable_car subway aircraft wheelchair scooter drone" speed="27.78" length="9.40" shape="759.71,448.23 750.73,445.45"/>
        <lane id=":12077752252_1_1" index="1" disallow="tram rail_urban rail rail_electric rail_fast ship container cable_car subway aircraft wheelchair scooter drone" speed="27.78" length="9.40" shape="760.66,445.17 751.68,442.40"/>
    </edge>
    <edge id=":12077752252_3" function="internal">
        <lane id=":12077752252_3_0" index="0" disallow="tram rail_urban rail rail_electric rail_fast ship container cable_car subway aircraft wheelchair scooter drone" speed="27.78" length="9.40" shape="753.57,436.28 762.55,439.06"/>
        <lane id=":12077752252_3_1" index="1" disallow="tram rail_urban rail rail_electric rail_fast ship container cable_car subway aircraft wheelchair scooter drone" speed="27.78" length="9.40" shape="752.62,439.34 761.60,442.11"/>
    </edge>
    <edge id=":12077752252_5" function="internal">
        <lane id=":12077752252_5_0" index="0" allow="pedestrian delivery bicycle" speed="7.64" length="2.82" shape="752.62,439.34 755.08,440.72"/>
    </edge>
    <edge id=":12077752252_9" function="internal">
        <lane id=":12077752252_9_0" index="0" allow="pedestrian delivery bicycle" speed="7.64" length="10.03" shape="755.08,440.72 756.43,443.00 756.68,446.19 755.83,450.28"/>
    </edge>
    <edge id=":12077752252_6" function="internal">
        <lane id=":12077752252_6_0" index="0" allow="pedestrian delivery bicycle" speed="5.04" length="5.00" shape="752.78,449.33 752.99,447.98 752.72,446.88 751.97,446.04 750.73,445.45"/>
    </edge>
    <edge id=":12077752252_7" function="internal">
        <lane id=":12077752252_7_0" index="0" allow="pedestrian delivery bicycle" speed="7.64" length="12.85" shape="752.78,449.33 754.38,445.48 756.38,442.99 758.79,441.87 761.60,442.11"/>
    </edge>
    <edge id=":12077752252_8" function="internal">
        <lane id=":12077752252_8_0" index="0" allow="pedestrian delivery bicycle" speed="3.65" length="4.67" shape="752.78,449.33 753.89,448.42 754.78,448.28 755.42,448.89 755.83,450.28"/>
    </edge>
    <edge id=":12077752254_0" function="internal">
        <lane id=":12077752254_0_0" index="0" allow="pedestrian delivery bicycle" speed="5.03" length="5.01" shape="696.27,429.16 694.91,428.97 693.82,429.27 693.00,430.05 692.45,431.31"/>
    </edge>
    <edge id=":12077752254_1" function="internal">
        <lane id=":12077752254_1_0" index="0" disallow="tram rail_urban rail rail_electric rail_fast ship container cable_car subway aircraft wheelchair scooter drone" speed="27.78" length="9.40" shape="696.27,429.16 687.23,426.58"/>
        <lane id=":12077752254_1_1" index="1" disallow="tram rail_urban rail rail_electric rail_fast ship container cable_car subway aircraft wheelchair scooter drone" speed="27.78" length="9.40" shape="697.15,426.09 688.11,423.50"/>
    </edge>
    <edge id=":12077752254_3" function="internal">
        <lane id=":12077752254_3_0" index="0" disallow="tram rail_urban rail rail_electric rail_fast ship container cable_car subway aircraft wheelchair scooter drone" speed="27.78" length="9.40" shape="689.87,417.35 698.91,419.93"/>
        <lane id=":12077752254_3_1" index="1" disallow="tram rail_urban rail rail_electric rail_fast ship container cable_car subway aircraft wheelchair scooter drone" speed="27.78" length="9.40" shape="688.99,420.42 698.03,423.01"/>
    </edge>
    <edge id=":12077752254_5" function="internal">
        <lane id=":12077752254_5_0" index="0" allow="pedestrian delivery bicycle" speed="7.67" length="2.79" shape="688.99,420.42 691.45,421.74"/>
    </edge>
    <edge id=":12077752254_9" function="internal">
        <lane id=":12077752254_9_0" index="0" allow="pedestrian delivery bicycle" speed="7.67" length="10.05" shape="691.45,421.74 692.84,424.00 693.18,427.19 692.45,431.31"/>
    </edge>
    <edge id=":12077752254_6" function="internal">
        <lane id=":12077752254_6_0" index="0" allow="pedestrian delivery bicycle" speed="5.08" length="5.05" shape="689.37,430.47 689.54,429.08 689.25,427.97 688.48,427.14 687.23,426.58"/>
    </edge>
    <edge id=":12077752254_7" function="internal">
        <lane id=":12077752254_7_0" index="0" allow="pedestrian delivery bicycle" speed="7.63" length="12.92" shape="689.37,430.47 690.85,426.54 692.79,423.99 695.19,422.82 698.03,423.01"/>
    </edge>
    <edge id=":12077752254_8" function="internal">
        <lane id=":12077752254_8_0" index="0" allow="pedestrian delivery bicycle" speed="3.65" length="4.67" shape="689.37,430.47 690.45,429.52 691.33,429.35 692.00,429.94 692.45,431.31"/>
    </edge>
    <edge id=":12077752256_0" function="internal">
        <lane id=":12077752256_0_0" index="0" disallow="tram rail_urban rail rail_electric rail_fast ship container cable_car subway aircraft wheelchair scooter drone" speed="27.78" length="9.22" shape="719.55,465.79 717.18,474.70"/>
        <lane id=":12077752256_0_1" index="1" disallow="tram rail_urban rail rail_electric rail_fast ship container cable_car subway aircraft wheelchair scooter drone" speed="27.78" length="9.22" shape="716.46,464.97 714.09,473.88"/>
    </edge>
    <edge id=":12077752256_2" function="internal">
        <lane id=":12077752256_2_0" index="0" allow="pedestrian delivery bicycle" speed="7.58" length="2.83" shape="716.46,464.97 715.16,467.49"/>
    </edge>
    <edge id=":12077752256_9" function="internal">
        <lane id=":12077752256_9_0" index="0" allow="pedestrian delivery bicycle" speed="7.58" length="10.09" shape="715.16,467.49 712.92,468.89 709.72,469.18 705.57,468.35"/>
    </edge>
    <edge id=":12077752256_3" function="internal">
        <lane id=":12077752256_3_0" index="0" allow="pedestrian delivery bicycle" speed="4.95" length="4.89" shape="706.49,465.28 707.86,465.50 708.95,465.25 709.75,464.52 710.27,463.33"/>
    </edge>
    <edge id=":12077752256_4" function="internal">
        <lane id=":12077752256_4_0" index="0" allow="pedestrian delivery bicycle" speed="7.72" length="12.81" shape="706.49,465.28 710.40,466.85 712.97,468.80 714.20,471.15 714.09,473.88"/>
    </edge>
    <edge id=":12077752256_5" function="internal">
        <lane id=":12077752256_5_0" index="0" allow="pedestrian delivery bicycle" speed="3.65" length="4.67" shape="706.49,465.28 707.41,466.39 707.56,467.28 706.95,467.93 705.57,468.35"/>
    </edge>
    <edge id=":12077752256_6" function="internal">
        <lane id=":12077752256_6_0" index="0" allow="pedestrian delivery bicycle" speed="5.15" length="5.13" shape="707.90,472.23 708.05,470.88 707.71,469.79 706.89,468.94 705.57,468.35"/>
    </edge>
    <edge id=":12077752256_7" function="internal">
        <lane id=":12077752256_7_0" index="0" disallow="tram rail_urban rail rail_electric rail_fast ship container cable_car subway aircraft wheelchair scooter drone" speed="27.78" length="9.21" shape="707.90,472.23 710.27,463.33"/>
        <lane id=":12077752256_7_1" index="1" disallow="tram rail_urban rail rail_electric rail_fast ship container cable_car subway aircraft wheelchair scooter drone" speed="27.78" length="9.21" shape="711.00,473.05 713.36,464.15"/>
    </edge>
    <edge id=":12077811973_0" function="internal">
        <lane id=":12077811973_0_0" index="0" allow="pedestrian delivery bicycle" speed="3.65" length="4.67" shape="847.67,589.87 848.25,591.19 848.15,592.08 847.38,592.54 845.94,592.57"/>
    </edge>
    <edge id=":12077811975_0" function="internal">
        <lane id=":12077811975_0_0" index="0" allow="pedestrian bicycle" speed="2.89" length="2.92" width="2.00" shape="833.71,592.28 834.13,593.08 834.11,593.64 833.65,593.96 832.76,594.04"/>
    </edge>
    <edge id=":1234357826_0" function="internal">
        <lane id=":1234357826_0_0" index="0" allow="pedestrian delivery bicycle" speed="3.65" length="4.67" shape="417.35,549.21 416.13,549.98 415.24,550.03 414.67,549.34 414.43,547.91"/>
    </edge>
    <edge id=":1559077768_0" function="internal">
        <lane id=":1559077768_0_0" index="0" allow="pedestrian delivery bicycle" speed="6.22" length="5.70" shape="694.95,515.10 696.60,514.52 697.82,513.73 698.63,512.76 699.01,511.58"/>
    </edge>
    <edge id=":1559077768_1" function="internal">
        <lane id=":1559077768_1_0" index="0" allow="pedestrian delivery bicycle" speed="3.65" length="4.67" shape="694.95,515.10 696.33,515.55 696.93,516.21 696.76,517.09 695.82,518.19"/>
    </edge>
    <edge id=":1559077768_2" function="internal">
        <lane id=":1559077768_2_0" index="0" allow="pedestrian delivery bicycle" speed="4.50" length="4.69" shape="698.15,521.21 698.09,519.64 697.68,518.61 696.92,518.12 695.82,518.19"/>
    </edge>
    <edge id=":1559077768_3" function="internal">
        <lane id=":1559077768_3_0" index="0" disallow="tram rail_urban rail rail_electric rail_fast ship container cable_car subway aircraft wheelchair scooter drone" speed="27.78" length="9.54" shape="698.15,521.21 699.01,511.58"/>
        <lane id=":1559077768_3_1" index="1" disallow="tram rail_urban rail rail_electric rail_fast ship container cable_car subway aircraft wheelchair scooter drone" speed="27.78" length="9.54" shape="701.35,521.40 702.18,512.02"/>
    </edge>
    <edge id=":1559077779_0" function="internal">
        <lane id=":1559077779_0_0" index="0" allow="pedestrian delivery bicycle" speed="5.01" length="5.03" shape="596.38,538.98 595.08,539.45 594.26,540.23 593.91,541.31 594.04,542.69"/>
    </edge>
    <edge id=":1559077779_1" function="internal">
        <lane id=":1559077779_1_0" index="0" allow="pedestrian delivery bicycle" speed="3.65" length="4.67" shape="596.38,538.98 595.04,538.44 594.48,537.75 594.70,536.88 595.71,535.85"/>
    </edge>
    <edge id=":1559077779_2" function="internal">
        <lane id=":1559077779_2_0" index="0" allow="pedestrian delivery bicycle" speed="5.25" length="5.18" shape="591.63,533.68 592.20,534.89 593.07,535.65 594.24,535.97 595.71,535.85"/>
    </edge>
    <edge id=":1559077779_3" function="internal">
        <lane id=":1559077779_3_0" index="0" allow="pedestrian delivery bicycle" speed="5.56" length="9.32" shape="591.63,533.68 594.04,542.69"/>
    </edge>
    <edge id=":219725819_0" function="internal">
        <lane id=":219725819_0_0" index="0" allow="pedestrian delivery bicycle" speed="5.90" length="5.65" shape="703.35,494.51 703.12,493.26 702.43,492.22 701.28,491.39 699.68,490.77"/>
    </edge>
    <edge id=":219725819_1" function="internal">
        <lane id=":219725819_1_0" index="0" disallow="tram rail_urban rail rail_electric rail_fast ship container cable_car subway aircraft wheelchair scooter drone" speed="27.78" length="8.66" shape="703.35,494.51 703.34,491.81 703.41,489.96 703.71,488.13 704.37,485.52"/>
        <lane id=":219725819_1_1" index="1" disallow="tram rail_urban rail rail_electric rail_fast ship container cable_car subway aircraft wheelchair scooter drone" speed="27.78" length="8.66" shape="706.55,494.49 706.54,492.04 706.60,490.36 706.87,488.71 707.46,486.35"/>
    </edge>
    <edge id=":219725819_3" function="internal">
        <lane id=":219725819_3_0" index="0" allow="pedestrian delivery bicycle" speed="7.06" length="1.39" shape="706.55,494.49 707.01,493.18"/>
    </edge>
    <edge id=":219725819_16" function="internal">
        <lane id=":219725819_16_0" index="0" allow="pedestrian delivery bicycle" speed="7.06" length="11.81" shape="707.01,493.18 707.25,492.46 709.39,491.48 712.96,491.55 717.97,492.68"/>
    </edge>
    <edge id=":219725819_4" function="internal">
        <lane id=":219725819_4_0" index="0" allow="pedestrian delivery bicycle" speed="5.11" length="4.92" shape="717.08,495.75 715.76,495.56 714.67,495.84 713.81,496.56 713.19,497.75"/>
    </edge>
    <edge id=":219725819_5" function="internal">
        <lane id=":219725819_5_0" index="0" allow="pedestrian delivery bicycle" speed="5.56" length="18.10" shape="717.08,495.75 699.68,490.77"/>
    </edge>
    <edge id=":219725819_6" function="internal">
        <lane id=":219725819_6_0" index="0" allow="pedestrian delivery bicycle" speed="8.25" length="14.92" shape="717.08,495.75 712.26,493.95 709.05,491.78 707.45,489.25 707.46,486.35"/>
    </edge>
    <edge id=":219725819_7" function="internal">
        <lane id=":219725819_7_0" index="0" allow="pedestrian delivery bicycle" speed="3.65" length="4.67" shape="717.08,495.75 716.15,494.65 715.99,493.77 716.59,493.11 717.97,492.68"/>
    </edge>
    <edge id=":219725819_8" function="internal">
        <lane id=":219725819_8_0" index="0" allow="pedestrian delivery bicycle" speed="5.90" length="7.12" shape="713.65,487.99 713.60,489.48 714.30,490.76 715.76,491.83 717.97,492.68"/>
    </edge>
    <edge id=":219725819_9" function="internal">
        <lane id=":219725819_9_0" index="0" disallow="tram rail_urban rail rail_electric rail_fast ship container cable_car subway aircraft wheelchair scooter drone" speed="27.78" length="9.22" shape="713.65,487.99 712.82,490.63 712.05,492.37 711.21,494.09 710.17,496.67"/>
        <lane id=":219725819_9_1" index="1" disallow="tram rail_urban rail rail_electric rail_fast ship container cable_car subway aircraft wheelchair scooter drone" speed="27.78" length="9.22" shape="710.55,487.17 709.75,489.73 708.99,491.42 708.17,493.08 707.16,495.58"/>
    </edge>
    <edge id=":219725819_11" function="internal">
        <lane id=":219725819_11_0" index="0" allow="pedestrian delivery bicycle" speed="7.62" length="2.61" shape="710.55,487.17 709.37,489.49"/>
    </edge>
    <edge id=":219725819_17" function="internal">
        <lane id=":219725819_17_0" index="0" allow="pedestrian delivery bicycle" speed="7.62" length="10.36" shape="709.37,489.49 709.25,489.73 707.01,491.18 703.81,491.53 699.68,490.77"/>
    </edge>
    <edge id=":219725819_12" function="internal">
        <lane id=":219725819_12_0" index="0" allow="pedestrian delivery bicycle" speed="5.02" length="5.02" shape="700.55,487.69 701.92,487.88 703.01,487.58 703.83,486.79 704.37,485.52"/>
    </edge>
    <edge id=":219725819_13" function="internal">
        <lane id=":219725819_13_0" index="0" allow="pedestrian delivery bicycle" speed="5.56" length="18.11" shape="700.55,487.69 717.97,492.68"/>
    </edge>
    <edge id=":219725819_14" function="internal">
        <lane id=":219725819_14_0" index="0" allow="pedestrian delivery bicycle" speed="7.17" length="11.75" shape="700.55,487.69 704.18,489.10 706.49,490.88 707.48,493.05 707.16,495.58"/>
    </edge>
    <edge id=":219725819_15" function="internal">
        <lane id=":219725819_15_0" index="0" allow="pedestrian delivery bicycle" speed="3.65" length="4.67" shape="700.55,487.69 701.49,488.79 701.66,489.67 701.05,490.33 699.68,490.77"/>
    </edge>
    <edge id=":219727056_0" function="internal">
        <lane id=":219727056_0_0" index="0" allow="pedestrian delivery bicycle" speed="5.56" length="13.05" shape="586.02,515.65 587.40,518.79 588.31,521.73 589.06,524.73 589.96,528.06"/>
    </edge>
    <edge id=":219727056_1" function="internal">
        <lane id=":219727056_1_0" index="0" allow="pedestrian delivery bicycle" speed="3.65" length="4.67" shape="586.02,515.65 585.85,517.08 585.32,517.80 584.43,517.81 583.17,517.11"/>
    </edge>
    <edge id=":219727056_2" function="internal">
        <lane id=":219727056_2_0" index="0" allow="pedestrian delivery bicycle" speed="5.56" length="10.36" shape="584.05,526.37 585.29,525.48 585.55,523.65 584.85,520.86 583.17,517.11"/>
    </edge>
    <edge id=":219727056_3" function="internal">
        <lane id=":219727056_3_0" index="0" allow="pedestrian delivery bicycle" speed="5.56" length="6.80" shape="584.05,526.37 586.32,526.03 588.05,526.19 589.27,526.87 589.96,528.06"/>
    </edge>
    <edge id=":2445316144_0" function="internal">
        <lane id=":2445316144_0_0" index="0" allow="pedestrian delivery bicycle" speed="5.13" length="5.13" shape="652.83,530.20 652.32,528.85 651.52,527.99 650.44,527.59 649.08,527.68"/>
    </edge>
    <edge id=":2445316144_1" function="internal">
        <lane id=":2445316144_1_0" index="0" allow="pedestrian delivery bicycle" speed="5.56" length="10.34" shape="652.83,530.20 652.57,527.36 653.29,525.16 654.99,523.57 657.67,522.62"/>
    </edge>
    <edge id=":2445316144_2" function="internal">
        <lane id=":2445316144_2_0" index="0" allow="pedestrian delivery bicycle" speed="3.65" length="4.67" shape="652.83,530.20 653.33,528.84 654.02,528.27 654.89,528.47 655.95,529.45"/>
    </edge>
    <edge id=":2445316144_3" function="internal">
        <lane id=":2445316144_3_0" index="0" allow="pedestrian delivery bicycle" speed="5.00" length="5.04" shape="658.30,525.75 657.00,526.22 656.17,526.99 655.82,528.07 655.95,529.45"/>
    </edge>
    <edge id=":2445316144_4" function="internal">
        <lane id=":2445316144_4_0" index="0" allow="pedestrian delivery bicycle" speed="5.56" length="9.42" shape="658.30,525.75 649.08,527.68"/>
    </edge>
    <edge id=":2445316144_5" function="internal">
        <lane id=":2445316144_5_0" index="0" allow="pedestrian delivery bicycle" speed="3.65" length="4.67" shape="658.30,525.75 656.97,525.21 656.42,524.50 656.65,523.64 657.67,522.62"/>
    </edge>
    <edge id=":2445316144_6" function="internal">
        <lane id=":2445316144_6_0" index="0" allow="pedestrian delivery bicycle" speed="5.56" length="9.46" shape="648.41,524.55 657.67,522.62"/>
    </edge>
    <edge id=":2445316144_7" function="internal">
        <lane id=":2445316144_7_0" index="0" allow="pedestrian delivery bicycle" speed="5.56" length="10.20" shape="648.41,524.55 651.15,524.37 653.32,525.13 654.92,526.82 655.95,529.45"/>
    </edge>
    <edge id=":2445316144_8" function="internal">
        <lane id=":2445316144_8_0" index="0" allow="pedestrian delivery bicycle" speed="3.65" length="4.67" shape="648.41,524.55 649.75,525.08 650.31,525.78 650.09,526.64 649.08,527.68"/>
    </edge>
    <edge id=":2445316201_0" function="internal">
        <lane id=":2445316201_0_0" index="0" allow="pedestrian delivery bicycle" speed="3.65" length="4.67" shape="688.11,673.25 687.12,674.29 686.26,674.55 685.54,674.01 684.96,672.69"/>
    </edge>
    <edge id=":2445317006_0" function="internal">
        <lane id=":2445317006_0_0" index="0" allow="pedestrian delivery bicycle" speed="4.99" length="4.94" shape="723.39,463.53 722.02,463.34 720.94,463.62 720.13,464.37 719.60,465.60"/>
    </edge>
    <edge id=":2445317006_1" function="internal">
        <lane id=":2445317006_1_0" index="0" allow="pedestrian delivery bicycle" speed="7.68" length="12.83" shape="723.39,463.53 719.48,462.01 716.91,460.08 715.69,457.73 715.80,454.96"/>
    </edge>
    <edge id=":2445317006_2" function="internal">
        <lane id=":2445317006_2_0" index="0" allow="pedestrian delivery bicycle" speed="3.65" length="4.67" shape="723.39,463.53 722.45,462.43 722.29,461.55 722.89,460.89 724.26,460.45"/>
    </edge>
    <edge id=":2445317006_3" function="internal">
        <lane id=":2445317006_3_0" index="0" allow="pedestrian delivery bicycle" speed="5.10" length="5.07" shape="721.99,456.61 721.84,457.96 722.16,459.05 722.97,459.88 724.26,460.45"/>
    </edge>
    <edge id=":2445317006_4" function="internal">
        <lane id=":2445317006_4_0" index="0" disallow="tram rail_urban rail rail_electric rail_fast ship container cable_car subway aircraft wheelchair scooter drone" speed="27.78" length="9.30" shape="721.99,456.61 719.60,465.60"/>
        <lane id=":2445317006_4_1" index="1" disallow="tram rail_urban rail rail_electric rail_fast ship container cable_car subway aircraft wheelchair scooter drone" speed="27.78" length="9.30" shape="718.90,455.79 716.51,464.78"/>
    </edge>
    <edge id=":2445317006_6" function="internal">
        <lane id=":2445317006_6_0" index="0" disallow="tram rail_urban rail rail_electric rail_fast ship container cable_car subway aircraft wheelchair scooter drone" speed="27.78" length="9.30" shape="710.32,463.13 712.71,454.14"/>
        <lane id=":2445317006_6_1" index="1" disallow="tram rail_urban rail rail_electric rail_fast ship container cable_car subway aircraft wheelchair scooter drone" speed="27.78" length="9.30" shape="713.41,463.95 715.80,454.96"/>
    </edge>
    <edge id=":2445317006_8" function="internal">
        <lane id=":2445317006_8_0" index="0" allow="pedestrian delivery bicycle" speed="7.60" length="2.83" shape="713.41,463.95 714.70,461.44"/>
    </edge>
    <edge id=":2445317006_9" function="internal">
        <lane id=":2445317006_9_0" index="0" allow="pedestrian delivery bicycle" speed="7.60" length="10.06" shape="714.70,461.44 716.94,460.01 720.13,459.68 724.26,460.45"/>
    </edge>
    <edge id=":245864664_0" function="internal">
        <lane id=":245864664_0_0" index="0" disallow="tram rail_urban rail rail_electric rail_fast ship container cable_car subway aircraft wheelchair scooter drone" speed="3.65" length="4.67" shape="881.80,1112.34 880.98,1113.53 880.17,1113.92 879.38,1113.51 878.60,1112.30"/>
    </edge>
    <edge id=":25629539_0" function="internal">
        <lane id=":25629539_0_0" index="0" disallow="tram rail_urban rail rail_electric rail_fast ship container cable_car subway aircraft wheelchair scooter drone" speed="6.52" length="9.06" shape="763.39,329.92 760.92,329.58 758.93,330.11 757.43,331.50 756.42,333.75"/>
    </edge>
    <edge id=":25629539_1" function="internal">
        <lane id=":25629539_1_0" index="0" disallow="tram rail_urban rail rail_electric rail_fast ship container cable_car subway aircraft wheelchair scooter drone" speed="13.89" length="20.81" shape="763.39,329.92 743.37,324.18"/>
        <lane id=":25629539_1_1" index="1" disallow="tram rail_urban rail rail_electric rail_fast ship container cable_car subway aircraft wheelchair scooter drone" speed="13.89" length="20.81" shape="764.26,326.84 744.26,321.11"/>
    </edge>
    <edge id=":25629539_3" function="internal">
        <lane id=":25629539_3_0" index="0" disallow="tram rail_urban rail rail_electric rail_fast ship container cable_car subway aircraft wheelchair scooter drone" speed="8.06" length="14.60" shape="764.26,326.84 759.30,325.06 756.00,323.02 754.34,320.69 754.34,318.10"/>
    </edge>
    <edge id=":25629539_4" function="internal">
        <lane id=":25629539_4_0" index="0" disallow="tram rail_urban rail rail_electric rail_fast ship container cable_car subway aircraft wheelchair scooter drone" speed="22.22" length="14.41" shape="760.47,319.93 756.42,333.75"/>
        <lane id=":25629539_4_1" index="1" disallow="tram rail_urban rail rail_electric rail_fast ship container cable_car subway aircraft wheelchair scooter drone" speed="22.22" length="14.41" shape="757.40,319.01 753.34,332.87"/>
    </edge>