<?xml version="1.0" encoding="UTF-8"?>

<!-- generated on 2025-05-13 00:05:47 by Eclipse SUMO netconvert Version 1.22.0
<netconvertConfiguration xmlns:xsi="http://www.w3.org/2001/XMLSchema-instance" xsi:noNamespaceSchemaLocation="http://sumo.dlr.de/xsd/netconvertConfiguration.xsd">

    <input>
        <sumo-net-file value="input/kalayaan_kamias.net.xml"/>
    </input>

    <output>
        <plain-output-prefix value="input/plain_"/>
    </output>

    <processing>
        <geometry.min-radius.fix.railways value="false"/>
        <geometry.max-grade.fix value="false"/>
        <offset.disable-normalization value="true"/>
        <lefthand value="0"/>
    </processing>

    <junctions>
        <no-turnarounds value="true"/>
        <junctions.corner-detail value="5"/>
        <junctions.limit-turn-speed value="5.50"/>
        <rectangular-lane-cut value="0"/>
    </junctions>

    <pedestrian>
        <walkingareas value="0"/>
    </pedestrian>

</netconvertConfiguration>
-->

<edges version="1.20" xmlns:xsi="http://www.w3.org/2001/XMLSchema-instance" xsi:noNamespaceSchemaLocation="http://sumo.dlr.de/xsd/edges_file.xsd">
    <location netOffset="-289715.73,-1618224.46" convBoundary="0.00,0.00,1241.15,1773.22" origBoundary="121.047650,14.629312,121.059140,14.645315" projParameter="+proj=utm +zone=51 +ellps=WGS84 +datum=WGS84 +units=m +no_defs"/>

    <edge id="-107391307#0" from="8497574452" to="12077752252" priority="11" type="highway.secondary" numLanes="2" speed="27.78" disallow="tram rail_urban rail rail_electric rail_fast ship container cable_car subway aircraft wheelchair scooter drone"/>
    <edge id="-107391307#1" from="8497574450" to="8497574452" priority="11" type="highway.secondary" numLanes="2" speed="27.78" disallow="tram rail_urban rail rail_electric rail_fast ship container cable_car subway aircraft wheelchair scooter drone"/>
    <edge id="-107391307#2" from="1096054319" to="8497574450" priority="11" type="highway.secondary" numLanes="2" speed="27.78" shape="1107.22,545.15 1104.37,544.35 1062.06,532.12 972.80,506.29 966.13,504.35 957.61,501.92 948.08,499.17 930.78,494.21" disallow="tram rail_urban rail rail_electric rail_fast ship container cable_car subway aircraft wheelchair scooter drone"/>
    <edge id="-1080167731" from="8314845375" to="8314845376" priority="1" type="highway.service" numLanes="1" speed="5.56" allow="pedestrian delivery bicycle"/>
    <edge id="-1080167732" from="8314845376" to="9900965004" priority="1" type="highway.service" numLanes="1" speed="5.56" allow="pedestrian delivery bicycle"/>
    <edge id="-1115112173" from="8312469181" to="8312576083" priority="1" type="highway.path" numLanes="1" speed="5.56" shape="874.07,582.01 862.83,584.91 834.29,568.50 831.89,567.22" width="2.00" allow="pedestrian bicycle"/>
    <edge id="-1235362878" from="1559077768" to="8637607786" priority="1" type="highway.service" numLanes="1" speed="5.56" allow="pedestrian delivery bicycle"/>
    <edge id="-1235362879" from="219725819" to="8370000462" priority="1" type="highway.service" numLanes="1" speed="5.56" allow="pedestrian delivery bicycle"/>
    <edge id="-1235363021" from="11467985984" to="219725819" priority="1" type="highway.service" numLanes="1" speed="5.56" allow="pedestrian delivery bicycle"/>
    <edge id="-1235363022" from="11467985985" to="11467985984" priority="1" type="highway.service" numLanes="1" speed="5.56" shape="854.57,518.65 806.58,505.80 767.82,506.13 753.99,504.69 727.32,497.03" allow="pedestrian delivery bicycle"/>
    <edge id="-1289471582" from="11956719773" to="11956719774" priority="1" type="highway.service" numLanes="1" speed="5.56" allow="pedestrian delivery bicycle"/>
    <edge id="-1289471583" from="11956719774" to="11956719775" priority="1" type="highway.service" numLanes="1" speed="5.56" allow="pedestrian delivery bicycle"/>
    <edge id="-1304183113" from="12077752249" to="12077752256" priority="1" type="highway.service" numLanes="1" speed="5.56" allow="pedestrian delivery bicycle"/>
    <edge id="-1304183114" from="2445317006" to="12077752252" priority="1" type="highway.service" numLanes="1" speed="5.56" shape="716.17,459.81 748.39,468.99 756.63,442.25" allow="pedestrian delivery bicycle"/>
    <edge id="-1304183115" from="12077752254" to="12077752249" priority="1" type="highway.service" numLanes="1" speed="5.56" shape="693.00,423.23 682.96,459.91 699.28,464.79" allow="pedestrian delivery bicycle"/>
    <edge id="-1304185657" from="8312576089" to="12077811973" priority="1" type="highway.service" numLanes="1" speed="5.56" shape="821.39,576.47 825.48,577.58 846.81,591.22" allow="pedestrian delivery bicycle"/>
    <edge id="-1304185658" from="12077811975" to="8312576094" priority="1" type="highway.path" numLanes="1" speed="5.56" shape="833.23,593.16 815.74,583.61 809.06,580.81" width="2.00" allow="pedestrian bicycle"/>
    <edge id="-1311896096#0" from="8364117230" to="25629548" priority="11" type="highway.secondary" numLanes="2" speed="27.78" disallow="tram rail_urban rail rail_electric rail_fast ship container cable_car subway aircraft wheelchair scooter drone"/>
    <edge id="-1311896096#1" from="12077752252" to="8364117230" priority="11" type="highway.secondary" numLanes="2" speed="27.78" disallow="tram rail_urban rail rail_electric rail_fast ship container cable_car subway aircraft wheelchair scooter drone"/>
    <edge id="-1311896097#0" from="8364117231" to="12077752254" priority="11" type="highway.secondary" numLanes="2" speed="27.78" disallow="tram rail_urban rail rail_electric rail_fast ship container cable_car subway aircraft wheelchair scooter drone"/>
    <edge id="-1311896097#1" from="25629548" to="8364117231" priority="11" type="highway.secondary" numLanes="2" speed="27.78" disallow="tram rail_urban rail rail_electric rail_fast ship container cable_car subway aircraft wheelchair scooter drone"/>
    <edge id="-20515311" from="8370000462" to="8370000464" priority="1" type="highway.service" numLanes="1" speed="5.56" shape="686.97,485.48 566.37,450.38 372.90,394.31 237.55,356.94" allow="pedestrian delivery bicycle"/>
    <edge id="-20515379" from="1234357826" to="219727056" priority="1" type="highway.service" numLanes="1" speed="5.56" shape="415.89,548.56 429.21,518.51 437.41,505.57 462.17,479.63 487.01,465.63 519.37,464.43 551.84,476.10 574.21,496.13 589.10,525.17" allow="pedestrian delivery bicycle"/>
    <edge id="-23088409#0" from="2445316144" to="1559077779" priority="1" type="highway.service" numLanes="1" speed="5.56" allow="pedestrian delivery bicycle"/>
    <edge id="-23088409#1" from="8637607786" to="2445316144" priority="1" type="highway.service" numLanes="1" speed="5.56" allow="pedestrian delivery bicycle"/>
    <edge id="-236508669" from="2445316201" to="2445316144" priority="1" type="highway.service" numLanes="1" speed="5.56" shape="686.54,672.97 687.46,667.76 653.27,525.14" allow="pedestrian delivery bicycle"/>
    <edge id="-244388662#0" from="8364117229" to="25629548" priority="11" type="highway.secondary" numLanes="2" speed="27.78" shape="720.42,443.84 720.68,442.85 723.53,432.13" disallow="tram rail_urban rail rail_electric rail_fast ship container cable_car subway aircraft wheelchair scooter drone"/>
    <edge id="-244388662#1" from="2445317006" to="8364117229" priority="11" type="highway.secondary" numLanes="2" speed="27.78" disallow="tram rail_urban rail rail_electric rail_fast ship container cable_car subway aircraft wheelchair scooter drone"/>
    <edge id="-244388662#2" from="12077752256" to="2445317006" priority="11" type="highway.secondary" numLanes="2" speed="27.78" disallow="tram rail_urban rail rail_electric rail_fast ship container cable_car subway aircraft wheelchair scooter drone"/>
    <edge id="-244388662#3" from="219725819" to="12077752256" priority="11" type="highway.secondary" numLanes="2" speed="27.78" disallow="tram rail_urban rail rail_electric rail_fast ship container cable_car subway aircraft wheelchair scooter drone"/>
    <edge id="-46256527#0" from="25629539" to="31877922" priority="10" type="highway.tertiary" numLanes="2" speed="22.22" shape="753.78,325.54 767.98,278.17 781.06,231.37 795.37,187.52 797.37,181.40 798.71,177.29 800.13,172.93 808.64,146.86 812.03,136.46 814.85,128.99 819.21,117.66 824.81,103.65 827.82,97.46 842.21,70.56 847.78,60.32 860.57,38.46 863.73,33.57 869.45,24.73 884.64,0.00" disallow="tram rail_urban rail rail_electric rail_fast ship container cable_car subway aircraft wheelchair scooter drone"/>
    <edge id="-46256527#1" from="32285101" to="25629539" priority="10" type="highway.tertiary" numLanes="2" speed="22.22" disallow="tram rail_urban rail rail_electric rail_fast ship container cable_car subway aircraft wheelchair scooter drone"/>
    <edge id="-824295767#0" from="8364117228" to="32285101" priority="10" type="highway.tertiary" numLanes="2" speed="22.22" disallow="tram rail_urban rail rail_electric rail_fast ship container cable_car subway aircraft wheelchair scooter drone"/>
    <edge id="-824295767#1" from="25629548" to="8364117228" priority="10" type="highway.tertiary" numLanes="2" speed="22.22" disallow="tram rail_urban rail rail_electric rail_fast ship container cable_car subway aircraft wheelchair scooter drone"/>
    <edge id="-894562445#0" from="8314845376" to="8314845383" priority="1" type="highway.service" numLanes="1" speed="5.56" allow="pedestrian delivery bicycle"/>
    <edge id="-894562445#1" from="8314845382" to="8314845376" priority="1" type="highway.service" numLanes="1" speed="5.56" allow="pedestrian delivery bicycle"/>
    <edge id="-900553123" from="8312576089" to="8312576094" priority="1" type="highway.service" numLanes="1" speed="5.56" shape="821.39,576.47 817.81,576.32 815.15,577.70 813.35,578.58 809.06,580.81" allow="pedestrian delivery bicycle"/>
    <edge id="-901141262" from="8312576094" to="245864664" priority="3" type="highway.residential" numLanes="1" speed="13.89" shape="809.06,580.81 808.37,583.08 808.07,586.74 809.24,592.37 813.94,614.92 820.86,642.45 842.09,738.31 847.36,763.81 847.88,766.33 854.54,798.54 855.04,800.93 859.12,820.68 862.63,839.44 871.52,898.24 872.58,904.82 881.59,1005.00 880.20,1112.32" disallow="tram rail_urban rail rail_electric rail_fast ship container cable_car subway aircraft wheelchair scooter drone"/>
    <edge id="-914776302" from="8497574451" to="8497574452" priority="1" type="highway.service" numLanes="1" speed="5.56" allow="pedestrian delivery bicycle"/>
    <edge id="-94334032#0" from="11956719775" to="32569985" priority="11" type="highway.secondary" numLanes="2" speed="27.78" disallow="tram rail_urban rail rail_electric rail_fast ship container cable_car subway aircraft wheelchair scooter drone"/>
    <edge id="-94334032#1" from="12077752254" to="11956719775" priority="11" type="highway.secondary" numLanes="2" speed="27.78" disallow="tram rail_urban rail rail_electric rail_fast ship container cable_car subway aircraft wheelchair scooter drone"/>
    <edge id="107391307#0" from="12077752252" to="8497574452" priority="11" type="highway.secondary" numLanes="2" speed="27.78" disallow="tram rail_urban rail rail_electric rail_fast ship container cable_car subway aircraft wheelchair scooter drone"/>
    <edge id="107391307#1" from="8497574452" to="8497574450" priority="11" type="highway.secondary" numLanes="2" speed="27.78" disallow="tram rail_urban rail rail_electric rail_fast ship container cable_car subway aircraft wheelchair scooter drone"/>
    <edge id="107391307#2" from="8497574450" to="1096054319" priority="11" type="highway.secondary" numLanes="2" speed="27.78" shape="930.78,494.21 948.08,499.17 957.61,501.92 966.13,504.35 972.80,506.29 1062.06,532.12 1104.37,544.35 1107.22,545.15" disallow="tram rail_urban rail rail_electric rail_fast ship container cable_car subway aircraft wheelchair scooter drone"/>
    <edge id="1080167731" from="8314845376" to="8314845375" priority="1" type="highway.service" numLanes="1" speed="5.56" allow="pedestrian delivery bicycle"/>
    <edge id="1080167732" from="9900965004" to="8314845376" priority="1" type="highway.service" numLanes="1" speed="5.56" allow="pedestrian delivery bicycle"/>
    <edge id="1115112173" from="8312576083" to="8312469181" priority="1" type="highway.path" numLanes="1" speed="5.56" shape="831.89,567.22 834.29,568.50 862.83,584.91 874.07,582.01" width="2.00" allow="pedestrian bicycle"/>
    <edge id="1235362878" from="8637607786" to="1559077768" priority="1" type="highway.service" numLanes="1" speed="5.56" allow="pedestrian delivery bicycle"/>
    <edge id="1235362879" from="8370000462" to="219725819" priority="1" type="highway.service" numLanes="1" speed="5.56" allow="pedestrian delivery bicycle"/>
    <edge id="1235363021" from="219725819" to="11467985984" priority="1" type="highway.service" numLanes="1" speed="5.56" allow="pedestrian delivery bicycle"/>
    <edge id="1235363022" from="11467985984" to="11467985985" priority="1" type="highway.service" numLanes="1" speed="5.56" shape="727.32,497.03 753.99,504.69 767.82,506.13 806.58,505.80 854.57,518.65" allow="pedestrian delivery bicycle"/>
    <edge id="1289471582" from="11956719774" to="11956719773" priority="1" type="highway.service" numLanes="1" speed="5.56" allow="pedestrian delivery bicycle"/>
    <edge id="1289471583" from="11956719775" to="11956719774" priority="1" type="highway.service" numLanes="1" speed="5.56" allow="pedestrian delivery bicycle"/>
    <edge id="1304183113" from="12077752256" to="12077752249" priority="1" type="highway.service" numLanes="1" speed="5.56" allow="pedestrian delivery bicycle"/>
    <edge id="1304183114" from="12077752252" to="2445317006" priority="1" type="highway.service" numLanes="1" speed="5.56" shape="756.63,442.25 748.39,468.99 716.17,459.81" allow="pedestrian delivery bicycle"/>
    <edge id="1304183115" from="12077752249" to="12077752254" priority="1" type="highway.service" numLanes="1" speed="5.56" shape="699.28,464.79 682.96,459.91 693.00,423.23" allow="pedestrian delivery bicycle"/>
    <edge id="1304185657" from="12077811973" to="8312576089" priority="1" type="highway.service" numLanes="1" speed="5.56" shape="846.81,591.22 825.48,577.58 821.39,576.47" allow="pedestrian delivery bicycle"/>
    <edge id="1304185658" from="8312576094" to="12077811975" priority="1" type="highway.path" numLanes="1" speed="5.56" shape="809.06,580.81 815.74,583.61 833.23,593.16" width="2.00" allow="pedestrian bicycle"/>
    <edge id="1311896096#0" from="25629548" to="8364117230" priority="11" type="highway.secondary" numLanes="2" speed="27.78" disallow="tram rail_urban rail rail_electric rail_fast ship container cable_car subway aircraft wheelchair scooter drone"/>
    <edge id="1311896096#1" from="8364117230" to="12077752252" priority="11" type="highway.secondary" numLanes="2" speed="27.78" disallow="tram rail_urban rail rail_electric rail_fast ship container cable_car subway aircraft wheelchair scooter drone"/>
    <edge id="1311896097#0" from="12077752254" to="8364117231" priority="11" type="highway.secondary" numLanes="2" speed="27.78" disallow="tram rail_urban rail rail_electric rail_fast ship container cable_car subway aircraft wheelchair scooter drone"/>
    <edge id="1311896097#1" from="8364117231" to="25629548" priority="11" type="highway.secondary" numLanes="2" speed="27.78" disallow="tram rail_urban rail rail_electric rail_fast ship container cable_car subway aircraft wheelchair scooter drone"/>
    <edge id="142458679#0" from="219727056" to="1559077779" priority="1" type="highway.service" numLanes="1" speed="5.56" spreadType="center" allow="pedestrian delivery bicycle"/>
    <edge id="142458679#1" from="1559077779" to="249227180" priority="1" type="highway.service" numLanes="1" speed="5.56" shape="592.93,538.08 616.18,634.56 629.32,688.75 629.87,695.51" spreadType="center" allow="pedestrian delivery bicycle"/>
    <edge id="20515311" from="8370000464" to="8370000462" priority="1" type="highway.service" numLanes="1" speed="5.56" shape="237.55,356.94 372.90,394.31 566.37,450.38 686.97,485.48" allow="pedestrian delivery bicycle"/>
    <edge id="20515379" from="219727056" to="1234357826" priority="1" type="highway.service" numLanes="1" speed="5.56" shape="589.10,525.17 574.21,496.13 551.84,476.10 519.37,464.43 487.01,465.63 462.17,479.63 437.41,505.57 429.21,518.51 415.89,548.56" allow="pedestrian delivery bicycle"/>
    <edge id="20515401#0" from="219727430" to="8314845383" priority="1" type="highway.service" numLanes="1" speed="5.56" spreadType="center" allow="pedestrian delivery bicycle"/>
    <edge id="20515401#1" from="8314845383" to="219727056" priority="1" type="highway.service" numLanes="1" speed="5.56" spreadType="center" allow="pedestrian delivery bicycle"/>
    <edge id="23088409#0" from="1559077779" to="2445316144" priority="1" type="highway.service" numLanes="1" speed="5.56" allow="pedestrian delivery bicycle"/>
    <edge id="23088409#1" from="2445316144" to="8637607786" priority="1" type="highway.service" numLanes="1" speed="5.56" allow="pedestrian delivery bicycle"/>
    <edge id="236508669" from="2445316144" to="2445316201" priority="1" type="highway.service" numLanes="1" speed="5.56" shape="653.27,525.14 687.46,667.76 686.54,672.97" allow="pedestrian delivery bicycle"/>
    <edge id="244388662#0" from="25629548" to="8364117229" priority="11" type="highway.secondary" numLanes="2" speed="27.78" shape="723.53,432.13 720.68,442.85 720.42,443.84" disallow="tram rail_urban rail rail_electric rail_fast ship container cable_car subway aircraft wheelchair scooter drone"/>
    <edge id="244388662#1" from="8364117229" to="2445317006" priority="11" type="highway.secondary" numLanes="2" speed="27.78" disallow="tram rail_urban rail rail_electric rail_fast ship container cable_car subway aircraft wheelchair scooter drone"/>
    <edge id="244388662#2" from="2445317006" to="12077752256" priority="11" type="highway.secondary" numLanes="2" speed="27.78" disallow="tram rail_urban rail rail_electric rail_fast ship container cable_car subway aircraft wheelchair scooter drone"/>
    <edge id="244388662#3" from="12077752256" to="219725819" priority="11" type="highway.secondary" numLanes="2" speed="27.78" disallow="tram rail_urban rail rail_electric rail_fast ship container cable_car subway aircraft wheelchair scooter drone"/>
    <edge id="46256527#0" from="31877922" to="25629539" priority="10" type="highway.tertiary" numLanes="2" speed="22.22" shape="884.64,0.00 869.45,24.73 863.73,33.57 860.57,38.46 847.78,60.32 842.21,70.56 827.82,97.46 824.81,103.65 819.21,117.66 814.85,128.99 812.03,136.46 808.64,146.86 800.13,172.93 798.71,177.29 797.37,181.40 795.37,187.52 781.06,231.37 767.98,278.17 753.78,325.54" disallow="tram rail_urban rail rail_electric rail_fast ship container cable_car subway aircraft wheelchair scooter drone"/>
    <edge id="46256527#1" from="25629539" to="32285101" priority="10" type="highway.tertiary" numLanes="2" speed="22.22" disallow="tram rail_urban rail rail_electric rail_fast ship container cable_car subway aircraft wheelchair scooter drone"/>
    <edge id="4910309" from="32285101" to="32087315" priority="3" type="highway.residential" numLanes="2" speed="13.89" shape="739.30,376.10 985.55,442.37 1227.17,512.54" spreadType="center" disallow="tram rail_urban rail rail_electric rail_fast ship container cable_car subway aircraft wheelchair scooter drone"/>
    <edge id="4910318#0" from="25629540" to="25629539" priority="3" type="highway.residential" numLanes="2" speed="13.89" shape="1241.15,466.97 1007.40,397.35 998.44,394.68 753.78,325.54" spreadType="center" disallow="tram rail_urban rail rail_electric rail_fast ship container cable_car subway aircraft wheelchair scooter drone"/>
    <edge id="4910318#1" from="25629539" to="32088515" priority="3" type="highway.residential" numLanes="2" speed="13.89" shape="753.78,325.54 514.35,256.12 510.08,254.89 503.13,252.91 273.29,187.37 265.41,185.13 246.15,179.50 0.00,107.70" spreadType="center" disallow="tram rail_urban rail rail_electric rail_fast ship container cable_car subway aircraft wheelchair scooter drone"/>
    <edge id="61450521#0" from="219725819" to="6328480683" priority="11" type="highway.secondary" numLanes="3" speed="27.78" shape="712.45,490.33 709.45,498.69 709.83,503.25 708.92,509.63 708.88,516.59 709.53,541.07 713.23,564.67 725.18,614.49 730.79,640.07 736.58,666.49 752.20,729.49 756.02,744.88" spreadType="center" disallow="tram rail_urban rail rail_electric rail_fast ship container cable_car subway aircraft wheelchair scooter drone"/>
    <edge id="61450521#1" from="6328480683" to="767059660" priority="11" type="highway.secondary" numLanes="3" speed="27.78" spreadType="center" disallow="tram rail_urban rail rail_electric rail_fast ship container cable_car subway aircraft wheelchair scooter drone"/>
    <edge id="61450521#2" from="767059660" to="6328480681" priority="11" type="highway.secondary" numLanes="3" speed="27.78" spreadType="center" disallow="tram rail_urban rail rail_electric rail_fast ship container cable_car subway aircraft wheelchair scooter drone"/>
    <edge id="61450521#3" from="6328480681" to="767059638" priority="11" type="highway.secondary" numLanes="3" speed="27.78" shape="761.21,768.81 769.04,811.93 770.07,817.59 772.50,832.05 775.28,848.58 775.37,849.11 785.43,915.40 786.89,927.27 787.96,943.04 788.78,955.84 790.92,986.26 792.36,1024.61 793.56,1102.70 793.56,1109.66 791.59,1168.55 785.68,1235.38 784.12,1249.92 773.57,1324.89 770.57,1340.47 768.75,1349.86 765.45,1370.23 761.51,1388.33 755.87,1416.42 754.20,1424.06 744.56,1460.01 734.76,1491.70 731.47,1502.02 728.47,1512.78 703.75,1584.90 675.89,1659.95 671.62,1669.29 648.63,1719.32 626.21,1764.65 621.31,1773.22" spreadType="center" disallow="tram rail_urban rail rail_electric rail_fast ship container cable_car subway aircraft wheelchair scooter drone"/>
    <edge id="675768320#0" from="26832002" to="6328480684" priority="11" type="highway.secondary" numLanes="2" speed="27.78" spreadType="center" disallow="tram rail_urban rail rail_electric rail_fast ship container cable_car subway aircraft wheelchair scooter drone"/>
    <edge id="675768320#1" from="6328480684" to="1559077768" priority="11" type="highway.secondary" numLanes="2" speed="27.78" shape="745.54,747.19 726.82,668.61 714.99,616.11 703.52,564.79 700.22,542.45 699.57,524.36 700.10,515.40" spreadType="center" disallow="tram rail_urban rail rail_electric rail_fast ship container cable_car subway aircraft wheelchair scooter drone"/>
    <edge id="675768320#2" from="1559077768" to="219725819" priority="11" type="highway.secondary" numLanes="2" speed="27.78" shape="700.10,515.40 700.94,509.32 701.91,504.91 703.20,501.19 704.97,496.86 704.92,489.95" spreadType="center" disallow="tram rail_urban rail rail_electric rail_fast ship container cable_car subway aircraft wheelchair scooter drone"/>
    <edge id="824295767#0" from="32285101" to="8364117228" priority="10" type="highway.tertiary" numLanes="2" speed="22.22" disallow="tram rail_urban rail rail_electric rail_fast ship container cable_car subway aircraft wheelchair scooter drone"/>
    <edge id="824295767#1" from="8364117228" to="25629548" priority="10" type="highway.tertiary" numLanes="2" speed="22.22" disallow="tram rail_urban rail rail_electric rail_fast ship container cable_car subway aircraft wheelchair scooter drone"/>
    <edge id="824295768" from="32087875" to="32285101" priority="3" type="highway.residential" numLanes="2" speed="13.89" spreadType="center" disallow="bus tram rail_urban rail rail_electric rail_fast ship container cable_car subway aircraft wheelchair scooter drone"/>
    <edge id="894562445#0" from="8314845383" to="8314845376" priority="1" type="highway.service" numLanes="1" speed="5.56" allow="pedestrian delivery bicycle"/>
    <edge id="894562445#1" from="8314845376" to="8314845382" priority="1" type="highway.service" numLanes="1" speed="5.56" allow="pedestrian delivery bicycle"/>
    <edge id="900553123" from="8312576094" to="8312576089" priority="1" type="highway.service" numLanes="1" speed="5.56" shape="809.06,580.81 813.35,578.58 815.15,577.70 817.81,576.32 821.39,576.47" allow="pedestrian delivery bicycle"/>
    <edge id="901141262" from="245864664" to="8312576094" priority="3" type="highway.residential" numLanes="1" speed="13.89" shape="880.20,1112.32 881.59,1005.00 872.58,904.82 871.52,898.24 862.63,839.44 859.12,820.68 855.04,800.93 854.54,798.54 847.88,766.33 847.36,763.81 842.09,738.31 820.86,642.45 813.94,614.92 809.24,592.37 808.07,586.74 808.37,583.08 809.06,580.81" disallow="tram rail_urban rail rail_electric rail_fast ship container cable_car subway aircraft wheelchair scooter drone"/>
    <edge id="914776301#0" from="8497574450" to="8637521656" priority="1" type="highway.service" numLanes="1" speed="5.56" spreadType="center" allow="pedestrian delivery bicycle"/>
    <edge id="914776301#1" from="8637521656" to="8637521651" priority="1" type="highway.service" numLanes="1" speed="5.56" spreadType="center" allow="pedestrian delivery bicycle"/>
    <edge id="914776301#2" from="8637521651" to="8637521644" priority="1" type="highway.service" numLanes="1" speed="5.56" shape="937.48,471.48 939.61,464.24 945.12,465.87" spreadType="center" allow="pedestrian delivery bicycle"/>
    <edge id="914776302" from="8497574452" to="8497574451" priority="1" type="highway.service" numLanes="1" speed="5.56" allow="pedestrian delivery bicycle"/>
    <edge id="931695683" from="8637521648" to="8637521647" priority="1" type="highway.service" numLanes="1" speed="5.56" spreadType="center" allow="pedestrian delivery bicycle"/>
    <edge id="931695684" from="8637521656" to="8637521648" priority="1" type="highway.service" numLanes="1" speed="5.56" spreadType="center" allow="pedestrian delivery bicycle"/>
    <edge id="931695686" from="8637521649" to="8637521646" priority="1" type="highway.service" numLanes="1" speed="5.56" spreadType="center" allow="pedestrian delivery bicycle"/>
    <edge id="931695688" from="8637521644" to="8637521645" priority="1" type="highway.service" numLanes="1" speed="5.56" spreadType="center" allow="pedestrian delivery bicycle"/>
    <edge id="931695689" from="8637521651" to="8637521649" priority="1" type="highway.service" numLanes="1" speed="5.56" spreadType="center" allow="pedestrian delivery bicycle"/>
    <edge id="94334032#0" from="32569985" to="11956719775" priority="11" type="highway.secondary" numLanes="2" speed="27.78" disallow="tram rail_urban rail rail_electric rail_fast ship container cable_car subway aircraft wheelchair scooter drone"/>
    <edge id="94334032#1" from="11956719775" to="12077752254" priority="11" type="highway.secondary" numLanes="2" speed="27.78" disallow="tram rail_urban rail rail_electric rail_fast ship container cable_car subway aircraft wheelchair scooter drone"/>
</edges>
