<?xml version="1.0" encoding="UTF-8"?>

<!-- generated on 2025-05-03 18:34:40.029655 by randomTrips.py v1_22_0+0002-63e50f52594
<configuration>
    <net-file value="input/kalayaan_kamias.net.xml"/>
    <output-trip-file value="input/trips.trips.xml"/>
    <route-file value="input/routes.rou.xml"/>
    <period value="2.0"/>
    <binomial value="3"/>
</configuration>
-->

<!-- generated on 2025-05-03 18:34:39 by Eclipse SUMO duarouter Version 1.22.0
<duarouterConfiguration xmlns:xsi="http://www.w3.org/2001/XMLSchema-instance" xsi:noNamespaceSchemaLocation="http://sumo.dlr.de/xsd/duarouterConfiguration.xsd">

    <input>
        <net-file value="input/kalayaan_kamias.net.xml"/>
        <route-files value="input/trips.trips.xml"/>
    </input>

    <output>
        <output-file value="input/routes.rou.xml"/>
        <alternatives-output value="NUL"/>
    </output>

    <time>
        <begin value="0"/>
        <end value="3600"/>
    </time>

    <report>
        <no-warnings value="true"/>
        <ignore-errors value="true"/>
        <no-step-log value="true"/>
    </report>

</duarouterConfiguration>
-->

<routes xmlns:xsi="http://www.w3.org/2001/XMLSchema-instance" xsi:noNamespaceSchemaLocation="http://sumo.dlr.de/xsd/routes_file.xsd">
    <vehicle id="1" depart="1.00">
        <route edges="107391307#1 107391307#2 -107391307#2 -107391307#1"/>
    </vehicle>
    <vehicle id="2" depart="2.00">
        <route edges="-244388662#0 244388662#0 244388662#1"/>
    </vehicle>
    <vehicle id="3" depart="4.00">
        <route edges="675768320#1 675768320#2 -244388662#3 -244388662#2 -244388662#1 -244388662#0 244388662#0 244388662#1 244388662#2 244388662#3"/>
    </vehicle>
    <vehicle id="4" depart="5.00">
        <route edges="94334032#0 94334032#1 1311896097#0 1311896097#1 -824295767#1"/>
    </vehicle>
    <vehicle id="5" depart="5.00">
        <route edges="-1311896096#0 244388662#0 244388662#1 244388662#2 244388662#3 61450521#0 61450521#1 61450521#2"/>
    </vehicle>
    <vehicle id="6" depart="9.00">
        <route edges="-244388662#2 -244388662#1 -244388662#0 -824295767#1 -824295767#0 -46256527#1"/>
    </vehicle>
    <vehicle id="7" depart="10.00">
        <route edges="-244388662#2 -244388662#1 -244388662#0 -1311896097#1 -1311896097#0"/>
    </vehicle>
    <vehicle id="8" depart="14.00">
        <route edges="107391307#0 107391307#1 107391307#2 -107391307#2 -107391307#1 -107391307#0 -1311896096#1 -1311896096#0 -1311896097#1 -1311896097#0 -94334032#1 -94334032#0 94334032#0 94334032#1"/>
    </vehicle>
    <vehicle id="9" depart="16.00">
        <route edges="-824295767#0 -46256527#1 -46256527#0"/>
    </vehicle>
    <vehicle id="10" depart="22.00">
        <route edges="-107391307#1 -107391307#0 -1311896096#1 -1311896096#0 -1311896097#1 -1311896097#0"/>
    </vehicle>
    <vehicle id="11" depart="24.00">
        <route edges="107391307#0 107391307#1 107391307#2 -107391307#2 -107391307#1 -107391307#0 -1311896096#1 -1311896096#0 -1311896097#1 -1311896097#0 -94334032#1 -94334032#0 94334032#0 94334032#1"/>
    </vehicle>
    <vehicle id="13" depart="26.00">
        <route edges="1311896096#0 1311896096#1 107391307#0 107391307#1"/>
    </vehicle>
    <vehicle id="15" depart="31.00">
        <route edges="-824295767#0 824295767#0 824295767#1 1311896096#0 1311896096#1 107391307#0 107391307#1 107391307#2 -107391307#2 -107391307#1 -107391307#0"/>
    </vehicle>
    <vehicle id="16" depart="33.00">
        <route edges="824295767#1 -824295767#1 -824295767#0 824295767#0"/>
    </vehicle>
    <vehicle id="17" depart="33.00">
        <route edges="1311896097#0 1311896097#1 1311896096#0 1311896096#1 107391307#0 107391307#1 107391307#2 -107391307#2 -107391307#1 -107391307#0 -1311896096#1 -1311896096#0"/>
    </vehicle>
    <vehicle id="18" depart="34.00">
        <route edges="1311896097#0 1311896097#1 1311896096#0 1311896096#1"/>
    </vehicle>
    <vehicle id="19" depart="38.00">
        <route edges="-244388662#1 -244388662#0 -824295767#1"/>
    </vehicle>
    <vehicle id="21" depart="41.00">
        <route edges="-244388662#2 -244388662#1 -244388662#0 244388662#0 244388662#1 244388662#2"/>
    </vehicle>
    <vehicle id="23" depart="43.00">
        <route edges="1311896096#0 1311896096#1 107391307#0 107391307#1 107391307#2 -107391307#2 -107391307#1 -107391307#0 -1311896096#1 -1311896096#0 -1311896097#1 -1311896097#0 -94334032#1"/>
    </vehicle>
    <vehicle id="24" depart="45.00">
        <route edges="107391307#1 107391307#2 -107391307#2 -107391307#1 -107391307#0 -1311896096#1 -1311896096#0 -1311896097#1 -1311896097#0 -94334032#1 -94334032#0 94334032#0 94334032#1 1311896097#0 1311896097#1 -824295767#1"/>
    </vehicle>
    <vehicle id="25" depart="49.00">
        <route edges="94334032#1 1311896097#0 1311896097#1 -824295767#1 -824295767#0 824295767#0 824295767#1 244388662#0 244388662#1 244388662#2 244388662#3 61450521#0 61450521#1 61450521#2"/>
    </vehicle>
    <vehicle id="27" depart="51.00">
        <route edges="107391307#0 107391307#1 107391307#2 -107391307#2 -107391307#1 -107391307#0 -1311896096#1 -1311896096#0 -1311896097#1 -1311896097#0 -94334032#1 -94334032#0 94334032#0 94334032#1"/>
    </vehicle>
    <vehicle id="28" depart="54.00">
        <route edges="-46256527#1 46256527#1 824295767#0 824295767#1"/>
    </vehicle>
    <vehicle id="30" depart="56.00">
        <route edges="94334032#0 94334032#1 1311896097#0 1311896097#1 1311896096#0 1311896096#1 107391307#0 107391307#1 107391307#2 -107391307#2 -107391307#1 -107391307#0 -1311896096#1"/>
    </vehicle>
    <vehicle id="32" depart="62.00">
        <route edges="1311896096#1 107391307#0 107391307#1 107391307#2 -107391307#2 -107391307#1 -107391307#0 -1311896096#1 -1311896096#0 -1311896097#1 -1311896097#0 -94334032#1 -94334032#0 94334032#0 94334032#1"/>
    </vehicle>
    <vehicle id="33" depart="63.00">
        <route edges="-244388662#1 -244388662#0 -824295767#1 -824295767#0 -46256527#1 -46256527#0"/>
    </vehicle>
    <vehicle id="34" depart="65.00">
        <route edges="675768320#2 -244388662#3 -244388662#2 -244388662#1 -244388662#0 -824295767#1 -824295767#0 -46256527#1 46256527#1"/>
    </vehicle>
    <vehicle id="35" depart="66.00">
        <route edges="675768320#1 675768320#2 -244388662#3 -244388662#2 -244388662#1 -244388662#0 -824295767#1 -824295767#0 -46256527#1"/>
    </vehicle>
    <vehicle id="36" depart="67.00">
        <route edges="-1311896096#1 -1311896096#0 -1311896097#1 -1311896097#0"/>
    </vehicle>
    <vehicle id="37" depart="71.00">
        <route edges="107391307#1 107391307#2 -107391307#2 -107391307#1 -107391307#0 -1311896096#1 -1311896096#0 -1311896097#1 -1311896097#0 -94334032#1 -94334032#0 94334032#0 94334032#1 1311896097#0 1311896097#1 -824295767#1 -824295767#0 -46256527#1"/>
    </vehicle>
    <vehicle id="40" depart="74.00">
        <route edges="-1311896097#0 -94334032#1 -94334032#0 94334032#0 94334032#1 1311896097#0 1311896097#1 -824295767#1 -824295767#0"/>
    </vehicle>
    <vehicle id="41" depart="77.00">
        <route edges="675768320#0 675768320#1"/>
    </vehicle>
    <vehicle id="44" depart="81.00">
        <route edges="824295767#0 824295767#1 244388662#0 244388662#1 244388662#2 244388662#3 61450521#0 61450521#1 61450521#2 61450521#3"/>
    </vehicle>
    <vehicle id="45" depart="84.00">
        <route edges="-244388662#0 -824295767#1"/>
    </vehicle>
    <vehicle id="47" depart="88.00">
        <route edges="1311896096#0 1311896096#1 107391307#0 107391307#1 107391307#2 -107391307#2 -107391307#1 -107391307#0 -1311896096#1 -1311896096#0 -1311896097#1 -1311896097#0 -94334032#1 -94334032#0 94334032#0 94334032#1 1311896097#0 1311896097#1 -824295767#1 -824295767#0 4910309"/>
    </vehicle>
    <vehicle id="49" depart="92.00">
        <route edges="46256527#1 824295767#0 824295767#1 -824295767#1"/>
    </vehicle>
    <vehicle id="50" depart="95.00">
        <route edges="107391307#1 107391307#2 -107391307#2 -107391307#1 -107391307#0 -1311896096#1 -1311896096#0 -1311896097#1 -1311896097#0 -94334032#1 -94334032#0 94334032#0 94334032#1 1311896097#0 1311896097#1 -824295767#1 -824295767#0 824295767#0"/>
    </vehicle>
    <vehicle id="51" depart="97.00">
        <route edges="-46256527#1 46256527#1 824295767#0 824295767#1 1311896096#0 1311896096#1 107391307#0"/>
    </vehicle>
    <vehicle id="52" depart="100.00">
        <route edges="1311896097#1 -824295767#1 -824295767#0 824295767#0 824295767#1 244388662#0 244388662#1"/>
    </vehicle>
    <vehicle id="53" depart="103.00">
        <route edges="-244388662#2 -244388662#1 -244388662#0 -824295767#1 -824295767#0 824295767#0 824295767#1 1311896096#0 1311896096#1 107391307#0 107391307#1 107391307#2"/>
    </vehicle>
    <vehicle id="54" depart="103.00">
        <route edges="107391307#1 107391307#2 -107391307#2 -107391307#1 -107391307#0 -1311896096#1 -1311896096#0 244388662#0 244388662#1"/>
    </vehicle>
    <vehicle id="57" depart="107.00">
        <route edges="-244388662#2 -244388662#1 -244388662#0 244388662#0 244388662#1 244388662#2 244388662#3 61450521#0 61450521#1 61450521#2"/>
    </vehicle>
    <vehicle id="58" depart="114.00">
        <route edges="-46256527#1 -46256527#0"/>
    </vehicle>
    <vehicle id="59" depart="115.00">
        <route edges="-244388662#2 -244388662#1 -244388662#0 244388662#0 244388662#1 244388662#2 244388662#3"/>
    </vehicle>
    <vehicle id="60" depart="116.00">
        <route edges="107391307#1 107391307#2 -107391307#2 -107391307#1 -107391307#0 -1311896096#1 -1311896096#0 1311896096#0 1311896096#1"/>
    </vehicle>
    <vehicle id="61" depart="119.00">
        <route edges="-94334032#1 -94334032#0 94334032#0 94334032#1 1311896097#0 1311896097#1 -824295767#1 -824295767#0 -46256527#1 4910318#1"/>
    </vehicle>
    <vehicle id="62" depart="123.00">
        <route edges="-824295767#1 -824295767#0 824295767#0 824295767#1 244388662#0 244388662#1 244388662#2 244388662#3"/>
    </vehicle>
    <vehicle id="63" depart="123.00">
        <route edges="1311896096#1 107391307#0 107391307#1 107391307#2 -107391307#2 -107391307#1 -107391307#0 -1311896096#1 -1311896096#0 -1311896097#1"/>
    </vehicle>
    <vehicle id="64" depart="124.00">
        <route edges="107391307#0 107391307#1 107391307#2 -107391307#2 -107391307#1 -107391307#0 -1311896096#1 -1311896096#0 -1311896097#1 -1311896097#0 -94334032#1 -94334032#0 94334032#0 94334032#1 1311896097#0"/>
    </vehicle>
    <vehicle id="65" depart="124.00">
        <route edges="46256527#0 46256527#1 824295767#0 824295767#1 1311896096#0 1311896096#1 107391307#0 107391307#1 107391307#2 -107391307#2 -107391307#1 -107391307#0 -1311896096#1 -1311896096#0 -1311896097#1"/>
    </vehicle>
    <vehicle id="67" depart="127.00">
        <route edges="-107391307#0 -1311896096#1 -1311896096#0 1311896096#0 1311896096#1"/>
    </vehicle>
    <vehicle id="68" depart="130.00">
        <route edges="-1311896097#1"/>
    </vehicle>
    <vehicle id="69" depart="133.00">
        <route edges="675768320#1 675768320#2 -244388662#3 -244388662#2 -244388662#1 -244388662#0 -824295767#1 -824295767#0 824295767#0 824295767#1"/>
    </vehicle>
    <vehicle id="70" depart="134.00">
        <route edges="-107391307#1 -107391307#0 -1311896096#1 -1311896096#0 -1311896097#1 -1311896097#0 -94334032#1 -94334032#0 94334032#0 94334032#1 1311896097#0 1311896097#1 -824295767#1 -824295767#0"/>
    </vehicle>
    <vehicle id="71" depart="135.00">
        <route edges="4910318#0 46256527#1 824295767#0 824295767#1 244388662#0 244388662#1"/>
    </vehicle>
    <vehicle id="72" depart="136.00">
        <route edges="61450521#2 61450521#3"/>
    </vehicle>
    <vehicle id="73" depart="136.00">
        <route edges="94334032#1 1311896097#0 1311896097#1 -824295767#1 -824295767#0 824295767#0 824295767#1 244388662#0 244388662#1 244388662#2 244388662#3 61450521#0"/>
    </vehicle>
    <vehicle id="74" depart="139.00">
        <route edges="94334032#0 94334032#1 1311896097#0 1311896097#1 -824295767#1 -824295767#0 824295767#0 824295767#1 244388662#0 244388662#1"/>
    </vehicle>
    <vehicle id="78" depart="150.00">
        <route edges="-244388662#1 -244388662#0 244388662#0 244388662#1 244388662#2 244388662#3"/>
    </vehicle>
    <vehicle id="79" depart="154.00">
        <route edges="-244388662#0 -1311896097#1 -1311896097#0"/>
    </vehicle>
    <vehicle id="82" depart="159.00">
        <route edges="824295767#0 824295767#1 1311896096#0 1311896096#1 107391307#0 107391307#1 107391307#2"/>
    </vehicle>
    <vehicle id="84" depart="162.00">
        <route edges="46256527#0 46256527#1 824295767#0 824295767#1 1311896096#0 1311896096#1 107391307#0 107391307#1 107391307#2 -107391307#2 -107391307#1 -107391307#0 -1311896096#1 -1311896096#0"/>
    </vehicle>
    <vehicle id="87" depart="169.00">
        <route edges="-1311896097#1 -1311896097#0 -94334032#1 -94334032#0 94334032#0 94334032#1 1311896097#0 1311896097#1 1311896096#0 1311896096#1 107391307#0 107391307#1 107391307#2 -107391307#2 -107391307#1 -107391307#0 -1311896096#1"/>
    </vehicle>
    <vehicle id="88" depart="169.00">
        <route edges="1311896096#1 107391307#0 107391307#1 107391307#2 -107391307#2 -107391307#1 -107391307#0 -1311896096#1 -1311896096#0 -1311896097#1 -1311896097#0 -94334032#1 -94334032#0 94334032#0 94334032#1 1311896097#0 1311896097#1"/>
    </vehicle>
    <vehicle id="89" depart="175.00">
        <route edges="-1311896097#1 -1311896097#0 -94334032#1 -94334032#0 94334032#0 94334032#1 1311896097#0 1311896097#1 -824295767#1 -824295767#0"/>
    </vehicle>
    <vehicle id="90" depart="176.00">
        <route edges="4910318#0 46256527#1 824295767#0 824295767#1 244388662#0 244388662#1 244388662#2 244388662#3"/>
    </vehicle>
    <vehicle id="91" depart="177.00">
        <route edges="-107391307#1 -107391307#0 -1311896096#1 -1311896096#0 1311896096#0 1311896096#1 107391307#0"/>
    </vehicle>
    <vehicle id="92" depart="178.00">
        <route edges="94334032#0 94334032#1 1311896097#0 1311896097#1 -824295767#1 -824295767#0 824295767#0 824295767#1 244388662#0 244388662#1 244388662#2 244388662#3 61450521#0 61450521#1 61450521#2"/>
    </vehicle>
    <vehicle id="94" depart="183.00">
        <route edges="-824295767#1"/>
    </vehicle>
    <vehicle id="95" depart="192.00">
        <route edges="94334032#0 94334032#1 1311896097#0 1311896097#1 -824295767#1 -824295767#0 824295767#0 824295767#1 244388662#0"/>
    </vehicle>
    <vehicle id="98" depart="194.00">
        <route edges="675768320#2 -244388662#3 -244388662#2 -244388662#1 -244388662#0 -824295767#1 -824295767#0 824295767#0 824295767#1 1311896096#0 1311896096#1 107391307#0 107391307#1 107391307#2"/>
    </vehicle>
    <vehicle id="101" depart="208.00">
        <route edges="1311896097#1"/>
    </vehicle>
    <vehicle id="102" depart="211.00">
        <route edges="1311896096#1 107391307#0 107391307#1 107391307#2 -107391307#2 -107391307#1 -107391307#0 -1311896096#1 -1311896096#0 -1311896097#1 -1311896097#0 -94334032#1 -94334032#0 94334032#0 94334032#1 1311896097#0 1311896097#1 -824295767#1 -824295767#0 824295767#0 824295767#1"/>
    </vehicle>
    <vehicle id="103" depart="215.00">
        <route edges="-107391307#2 -107391307#1 -107391307#0 -1311896096#1 -1311896096#0 244388662#0 244388662#1"/>
    </vehicle>
    <vehicle id="104" depart="216.00">
        <route edges="46256527#0 46256527#1 824295767#0 824295767#1 244388662#0 244388662#1 244388662#2 244388662#3 61450521#0 61450521#1 61450521#2 61450521#3"/>
    </vehicle>
    <vehicle id="105" depart="218.00">
        <route edges="675768320#0 675768320#1 675768320#2 -244388662#3 -244388662#2 -244388662#1 -244388662#0 -824295767#1 -824295767#0 -46256527#1"/>
    </vehicle>
    <vehicle id="107" depart="219.00">
        <route edges="824295767#0 824295767#1 244388662#0"/>
    </vehicle>
    <vehicle id="108" depart="220.00">
        <route edges="1311896096#1 107391307#0 107391307#1 107391307#2 -107391307#2 -107391307#1 -107391307#0 -1311896096#1 -1311896096#0 -1311896097#1 -1311896097#0 -94334032#1 -94334032#0 94334032#0 94334032#1 1311896097#0 1311896097#1 -824295767#1 -824295767#0 -46256527#1 -46256527#0"/>
    </vehicle>
    <vehicle id="109" depart="221.00">
        <route edges="675768320#1 675768320#2"/>
    </vehicle>
    <vehicle id="110" depart="222.00">
        <route edges="1311896096#0 1311896096#1 107391307#0 107391307#1 107391307#2 -107391307#2 -107391307#1 -107391307#0 -1311896096#1 -1311896096#0 -1311896097#1 -1311896097#0 -94334032#1 -94334032#0 94334032#0 94334032#1 1311896097#0 1311896097#1 -824295767#1"/>
    </vehicle>
    <vehicle id="112" depart="235.00">
        <route edges="-46256527#1 46256527#1 4910309"/>
    </vehicle>
    <vehicle id="114" depart="239.00">
        <route edges="94334032#0 94334032#1 1311896097#0 1311896097#1 -1311896097#1"/>
    </vehicle>
    <vehicle id="116" depart="244.00">
        <route edges="-244388662#2 -244388662#1 -244388662#0 -824295767#1 -824295767#0 824295767#0 824295767#1 1311896096#0 1311896096#1 107391307#0 107391307#1 107391307#2 -107391307#2 -107391307#1"/>
    </vehicle>
    <vehicle id="117" depart="245.00">
        <route edges="675768320#1 675768320#2"/>
    </vehicle>
    <vehicle id="119" depart="247.00">
        <route edges="824295767#1 1311896096#0 1311896096#1 107391307#0 107391307#1 107391307#2 -107391307#2 -107391307#1 -107391307#0 -1311896096#1 -1311896096#0 -1311896097#1"/>
    </vehicle>
    <vehicle id="120" depart="249.00">
        <route edges="107391307#1 107391307#2 -107391307#2 -107391307#1 -107391307#0 -1311896096#1"/>
    </vehicle>
    <vehicle id="121" depart="251.00">
        <route edges="-94334032#1 -94334032#0 94334032#0 94334032#1 1311896097#0 1311896097#1 1311896096#0 1311896096#1 107391307#0"/>
    </vehicle>
    <vehicle id="122" depart="252.00">
        <route edges="4910318#0 46256527#1 824295767#0 824295767#1 1311896096#0 1311896096#1"/>
    </vehicle>
    <vehicle id="123" depart="253.00">
        <route edges="675768320#2 -244388662#3 -244388662#2 -244388662#1 -244388662#0 -824295767#1 -824295767#0 824295767#0 824295767#1 1311896096#0 1311896096#1 107391307#0 107391307#1"/>
    </vehicle>
    <vehicle id="124" depart="255.00">
        <route edges="675768320#0 675768320#1 675768320#2 -244388662#3"/>
    </vehicle>
    <vehicle id="126" depart="257.00">
        <route edges="824295768 824295767#0 824295767#1 1311896096#0 1311896096#1 107391307#0 107391307#1 107391307#2 -107391307#2 -107391307#1 -107391307#0"/>
    </vehicle>
    <vehicle id="127" depart="258.00">
        <route edges="-1311896097#0 -94334032#1 -94334032#0 94334032#0 94334032#1 1311896097#0 1311896097#1 -824295767#1 -824295767#0 -46256527#1 -46256527#0"/>
    </vehicle>
    <vehicle id="128" depart="259.00">
        <route edges="-107391307#0 -1311896096#1 -1311896096#0 244388662#0 244388662#1 244388662#2 244388662#3 61450521#0"/>
    </vehicle>
    <vehicle id="130" depart="262.00">
        <route edges="1311896097#1 -824295767#1 -824295767#0 824295767#0"/>
    </vehicle>
    <vehicle id="131" depart="262.00">
        <route edges="675768320#0 675768320#1 675768320#2 -244388662#3 -244388662#2 -244388662#1 -244388662#0 244388662#0 244388662#1 244388662#2 244388662#3 61450521#0 61450521#1 61450521#2 61450521#3"/>
    </vehicle>
    <vehicle id="132" depart="263.00">
        <route edges="1311896097#0 1311896097#1 -1311896097#1 -1311896097#0 -94334032#1"/>
    </vehicle>
    <vehicle id="133" depart="265.00">
        <route edges="-1311896096#0 244388662#0"/>
    </vehicle>
    <vehicle id="134" depart="265.00">
        <route edges="-46256527#1 46256527#1 824295767#0 824295767#1 244388662#0 244388662#1"/>
    </vehicle>
    <vehicle id="135" depart="267.00">
        <route edges="61450521#0 61450521#1 61450521#2 61450521#3"/>
    </vehicle>
    <vehicle id="136" depart="271.00">
        <route edges="1311896096#0 1311896096#1 107391307#0 107391307#1 107391307#2 -107391307#2 -107391307#1 -107391307#0 -1311896096#1 -1311896096#0 244388662#0 244388662#1 244388662#2"/>
    </vehicle>
    <vehicle id="137" depart="271.00">
        <route edges="824295768 824295767#0 824295767#1 1311896096#0 1311896096#1 107391307#0 107391307#1 107391307#2 -107391307#2 -107391307#1 -107391307#0 -1311896096#1 -1311896096#0"/>
    </vehicle>
    <vehicle id="138" depart="272.00">
        <route edges="-1311896096#0 -1311896097#1 -1311896097#0 -94334032#1 -94334032#0 94334032#0 94334032#1 1311896097#0 1311896097#1 -824295767#1 -824295767#0 4910309"/>
    </vehicle>
    <vehicle id="139" depart="274.00">
        <route edges="-94334032#1 -94334032#0 94334032#0 94334032#1 1311896097#0 1311896097#1 -824295767#1 -824295767#0 824295767#0 824295767#1 244388662#0 244388662#1 244388662#2"/>
    </vehicle>
    <vehicle id="142" depart="283.00">
        <route edges="824295767#0 824295767#1 1311896096#0 1311896096#1 107391307#0 107391307#1 107391307#2 -107391307#2 -107391307#1 -107391307#0 -1311896096#1 -1311896096#0 -1311896097#1 -1311896097#0 -94334032#1 -94334032#0 94334032#0 94334032#1 1311896097#0"/>
    </vehicle>
    <vehicle id="143" depart="283.00">
        <route edges="46256527#0 46256527#1 824295767#0 824295767#1 1311896096#0 1311896096#1 107391307#0 107391307#1 107391307#2 -107391307#2 -107391307#1"/>
    </vehicle>
    <vehicle id="145" depart="289.00">
        <route edges="1311896096#0 1311896096#1 107391307#0 107391307#1 107391307#2 -107391307#2 -107391307#1 -107391307#0 -1311896096#1 -1311896096#0 -1311896097#1 -1311896097#0 -94334032#1 -94334032#0 94334032#0 94334032#1 1311896097#0 1311896097#1 -824295767#1 -824295767#0 -46256527#1"/>
    </vehicle>
    <vehicle id="146" depart="291.00">
        <route edges="107391307#0 107391307#1 107391307#2 -107391307#2 -107391307#1 -107391307#0 -1311896096#1 -1311896096#0 -1311896097#1 -1311896097#0 -94334032#1 -94334032#0 94334032#0 94334032#1 1311896097#0 1311896097#1"/>
    </vehicle>
    <vehicle id="148" depart="291.00">
        <route edges="-244388662#3 -244388662#2 -244388662#1 -244388662#0 -824295767#1"/>
    </vehicle>
    <vehicle id="150" depart="294.00">
        <route edges="824295767#0 824295767#1 1311896096#0 1311896096#1 107391307#0 107391307#1 107391307#2 -107391307#2 -107391307#1"/>
    </vehicle>
    <vehicle id="151" depart="294.00">
        <route edges="824295768 824295767#0 824295767#1 244388662#0 244388662#1 244388662#2 244388662#3 61450521#0 61450521#1 61450521#2 61450521#3"/>
    </vehicle>
    <vehicle id="152" depart="296.00">
        <route edges="-107391307#0 -1311896096#1 -1311896096#0 -1311896097#1 -1311896097#0 -94334032#1 -94334032#0 94334032#0 94334032#1 1311896097#0 1311896097#1 -824295767#1 -824295767#0"/>
    </vehicle>
    <vehicle id="153" depart="297.00">
        <route edges="675768320#2 -244388662#3"/>
    </vehicle>
    <vehicle id="155" depart="302.00">
        <route edges="-244388662#0 244388662#0"/>
    </vehicle>
    <vehicle id="156" depart="307.00">
        <route edges="-107391307#2 -107391307#1 -107391307#0 -1311896096#1 -1311896096#0 1311896096#0 1311896096#1 107391307#0"/>
    </vehicle>
    <vehicle id="157" depart="308.00">
        <route edges="1311896097#1 -824295767#1 -824295767#0"/>
    </vehicle>
    <vehicle id="158" depart="309.00">
        <route edges="675768320#2 -244388662#3 -244388662#2 -244388662#1 -244388662#0 -824295767#1 -824295767#0 824295767#0 824295767#1 1311896096#0 1311896096#1 107391307#0 107391307#1 107391307#2 -107391307#2 -107391307#1 -107391307#0 -1311896096#1"/>
    </vehicle>
    <vehicle id="159" depart="314.00">
        <route edges="-107391307#2 -107391307#1 -107391307#0 -1311896096#1 -1311896096#0 -1311896097#1 -1311896097#0"/>
    </vehicle>
    <vehicle id="160" depart="317.00">
        <route edges="-94334032#1 -94334032#0 94334032#0 94334032#1 1311896097#0 1311896097#1 -824295767#1 -824295767#0 -46256527#1"/>
    </vehicle>
    <vehicle id="161" depart="319.00">
        <route edges="-1311896096#0 244388662#0 244388662#1 244388662#2 244388662#3"/>
    </vehicle>
    <vehicle id="162" depart="322.00">
        <route edges="-824295767#1 -824295767#0 824295767#0 824295767#1"/>
    </vehicle>
    <vehicle id="163" depart="329.00">
        <route edges="-1311896096#0 244388662#0 244388662#1 244388662#2 244388662#3 61450521#0 61450521#1 61450521#2"/>
    </vehicle>
    <vehicle id="164" depart="330.00">
        <route edges="61450521#2"/>
    </vehicle>
    <vehicle id="165" depart="330.00">
        <route edges="-824295767#1 -824295767#0 -46256527#1 4910318#1"/>
    </vehicle>
    <vehicle id="167" depart="332.00">
        <route edges="1311896096#0 1311896096#1 107391307#0 107391307#1 107391307#2 -107391307#2 -107391307#1 -107391307#0 -1311896096#1 -1311896096#0 -1311896097#1 -1311896097#0 -94334032#1"/>
    </vehicle>
    <vehicle id="168" depart="339.00">
        <route edges="-244388662#3 -244388662#2 -244388662#1 -244388662#0 244388662#0 244388662#1"/>
    </vehicle>
    <vehicle id="169" depart="340.00">
        <route edges="675768320#2 -244388662#3 -244388662#2 -244388662#1 -244388662#0 244388662#0 244388662#1 244388662#2 244388662#3 61450521#0 61450521#1 61450521#2 61450521#3"/>
    </vehicle>
    <vehicle id="170" depart="342.00">
        <route edges="1311896096#0 1311896096#1 107391307#0 107391307#1 107391307#2 -107391307#2 -107391307#1 -107391307#0 -1311896096#1 -1311896096#0 -1311896097#1 -1311896097#0 -94334032#1 -94334032#0 94334032#0 94334032#1 1311896097#0 1311896097#1 -824295767#1 -824295767#0 824295767#0"/>
    </vehicle>
    <vehicle id="171" depart="343.00">
        <route edges="-107391307#2 -107391307#1 -107391307#0 -1311896096#1 -1311896096#0 1311896096#0"/>
    </vehicle>
    <vehicle id="173" depart="346.00">
        <route edges="-46256527#1 46256527#1 824295767#0 824295767#1 244388662#0 244388662#1 244388662#2 244388662#3 61450521#0 61450521#1 61450521#2"/>
    </vehicle>
    <vehicle id="175" depart="347.00">
        <route edges="-1311896096#0 -1311896097#1 -1311896097#0 -94334032#1 -94334032#0 94334032#0 94334032#1 1311896097#0 1311896097#1 -824295767#1 -824295767#0 -46256527#1 -46256527#0"/>
    </vehicle>
    <vehicle id="176" depart="348.00">
        <route edges="-46256527#1 46256527#1 824295767#0 824295767#1 -824295767#1 -824295767#0"/>
    </vehicle>
    <vehicle id="177" depart="349.00">
        <route edges="107391307#1 107391307#2 -107391307#2 -107391307#1 -107391307#0 -1311896096#1 -1311896096#0 244388662#0 244388662#1 244388662#2 244388662#3 61450521#0"/>
    </vehicle>
    <vehicle id="178" depart="349.00">
        <route edges="824295768 824295767#0 824295767#1 1311896096#0 1311896096#1 107391307#0 107391307#1 107391307#2 -107391307#2 -107391307#1 -107391307#0 -1311896096#1 -1311896096#0 -1311896097#1 -1311896097#0 -94334032#1 -94334032#0 94334032#0 94334032#1 1311896097#0 1311896097#1"/>
    </vehicle>
    <vehicle id="180" depart="350.00">
        <route edges="1311896096#0 1311896096#1 107391307#0 107391307#1 107391307#2 -107391307#2 -107391307#1 -107391307#0 -1311896096#1 -1311896096#0 244388662#0"/>
    </vehicle>
    <vehicle id="181" depart="351.00">
        <route edges="94334032#0 94334032#1 1311896097#0 1311896097#1 1311896096#0 1311896096#1 107391307#0 107391307#1 107391307#2 -107391307#2 -107391307#1 -107391307#0 -1311896096#1 -1311896096#0"/>
    </vehicle>
    <vehicle id="182" depart="355.00">
        <route edges="675768320#0 675768320#1 675768320#2 -244388662#3 -244388662#2 -244388662#1 -244388662#0 -824295767#1"/>
    </vehicle>
    <vehicle id="183" depart="357.00">
        <route edges="244388662#0 244388662#1 244388662#2 244388662#3 61450521#0 61450521#1"/>
    </vehicle>
    <vehicle id="184" depart="359.00">
        <route edges="675768320#0 675768320#1 675768320#2 -244388662#3 -244388662#2 -244388662#1 -244388662#0 -824295767#1 -824295767#0 824295767#0 824295767#1 1311896096#0 1311896096#1 107391307#0 107391307#1"/>
    </vehicle>
    <vehicle id="185" depart="360.00">
        <route edges="-244388662#0 -824295767#1 -824295767#0 824295767#0 824295767#1 1311896096#0 1311896096#1 107391307#0 107391307#1 107391307#2 -107391307#2 -107391307#1"/>
    </vehicle>
    <vehicle id="187" depart="367.00">
        <route edges="244388662#3 61450521#0 61450521#1"/>
    </vehicle>
    <vehicle id="188" depart="368.00">
        <route edges="46256527#1 824295767#0 824295767#1 -824295767#1 -824295767#0"/>
    </vehicle>
    <vehicle id="191" depart="373.00">
        <route edges="244388662#3 61450521#0"/>
    </vehicle>
    <vehicle id="192" depart="373.00">
        <route edges="-107391307#2 -107391307#1 -107391307#0 -1311896096#1 -1311896096#0 244388662#0 244388662#1 244388662#2 244388662#3 61450521#0"/>
    </vehicle>
    <vehicle id="194" depart="381.00">
        <route edges="824295767#0 824295767#1 1311896096#0 1311896096#1 107391307#0 107391307#1"/>
    </vehicle>
    <vehicle id="195" depart="382.00">
        <route edges="4910318#0 46256527#1 824295767#0 824295767#1 244388662#0 244388662#1 244388662#2 244388662#3 61450521#0 61450521#1 61450521#2"/>
    </vehicle>
    <vehicle id="197" depart="386.00">
        <route edges="-244388662#1 -244388662#0 -1311896097#1"/>
    </vehicle>
    <vehicle id="199" depart="388.00">
        <route edges="-824295767#0 824295767#0 824295767#1 1311896096#0 1311896096#1 107391307#0 107391307#1 107391307#2 -107391307#2 -107391307#1 -107391307#0 -1311896096#1 -1311896096#0 -1311896097#1 -1311896097#0 -94334032#1 -94334032#0 94334032#0 94334032#1"/>
    </vehicle>